<routes>
        <vType id="typeWE" accel="0.8" decel="4.5" sigma="0.5" length="5" minGap="2.5" maxSpeed="16.67" guiShape="passenger"/>
        <vType id="typeNS" accel="0.8" decel="4.5" sigma="0.5" length="7" minGap="3" maxSpeed="25" guiShape="bus"/>

        <route id="right" edges="51o 1i 2o 52i" />
        <route id="left" edges="52o 2i 1o 51i" />
        <route id="down" edges="54o 4i 3o 53i" />
    <vehicle id="left_0" type="typeWE" route="left" depart="0" />
    <vehicle id="left_1" type="typeWE" route="left" depart="2" />
    <vehicle id="right_2" type="typeWE" route="right" depart="3" />
    <vehicle id="right_3" type="typeWE" route="right" depart="4" />
    <vehicle id="left_4" type="typeWE" route="left" depart="6" />
    <vehicle id="right_5" type="typeWE" route="right" depart="9" />
    <vehicle id="down_6" type="typeNS" route="down" depart="13" color="1,0,0"/>
    <vehicle id="left_7" type="typeWE" route="left" depart="22" />
    <vehicle id="down_8" type="typeNS" route="down" depart="29" color="1,0,0"/>
    <vehicle id="left_9" type="typeWE" route="left" depart="31" />
    <vehicle id="left_10" type="typeWE" route="left" depart="33" />
    <vehicle id="left_11" type="typeWE" route="left" depart="41" />
    <vehicle id="right_12" type="typeWE" route="right" depart="42" />
    <vehicle id="down_13" type="typeNS" route="down" depart="43" color="1,0,0"/>
    <vehicle id="left_14" type="typeWE" route="left" depart="45" />
</routes>
